Pressure Poisson Test Run              ! 30 CHARACTER ALPHANUMERIC RUN DESCRIPTION
Mesh 1                                 ! 20 CHARACTER ALPANUMERIC RUN IDENTIFICATION
 1                                     ! NFOVER - NONFATAL ERROR OVERRIDE OPTION
 1                                     ! NABOUT - ABREVIATED OUTPUT OPTION PARAMETER
 864                                   ! NSCREEN - SCREEN OUTPUT (0=NO SCREEN OUTPUT, 1=SCREEN OUTPUT)
 0                                     ! IHOT - HOT START PARAM (0=COLD START, 1=HOT START)
 1                                     ! ICS - POLAR COORDINATE OPTION (1=CART COORDS, 2=POLAR COORDS)
 0                                     ! IM - MODEL TYPE (0=2DDI, 1=3DL VS, 2=3DL DSS)
 1                                     ! NOLIBF - nonlinear bottom friction
 1                                     ! NOLIFA - nonlinear finite amplitude
 1                                     ! NOLICA - nonlinear advec (spat grads)
 1                                     ! NOLICAT - nonlinear advec (time derivs)
 0                                     ! NWP - VARIABLE BOTTOM FRICTION AND LATERAL VISCOSITY OPTION PARAMETER
 0                                     ! NCOR - VARIABLE CORIOLIS IN SPACE OPTION PARAMETER
 0                                     ! NTIP - TIDAL POTENTIAL OPTION PARAMETER
 0                                     ! NWS - WIND STRESS AND BAROMETRIC PRESSURE OPTION PARAMETER
 1                                     ! NRAMP - RAMP FUNCTION OPTION (0=NO, 1=YES)
 9.81                                  ! G - ACCELERATION DUE TO GRAVITY - DETERMINES UNITS
 0.04                                  ! TAU0 - WEIGHTING FACTOR IN GWCE
 0.01                                  ! DT - TIME STEP (IN SECONDS)
 0.0                                   ! STATIM - STARTING TIME
 0.0                                   ! REFTIME - STARTING REFERENCE TIME (IN DAYS)
 0.1                                   ! RNDAY - TOTAL LENGTH OF SIMULATION (IN DAYS)
 0.05                                  ! DRAMP - TIME CONSTANT FOR RAMP FUNCTION
 0.35 0.30 0.35                        ! TIME WEIGHTING FACTORS FOR THE GWCE EQUATION
 0.0                                   ! H0 - MIMINMUM CUTOFF DEPTH
 -76.67  34.69                         ! SLAM0, SFEA0 - LONG. AND LAT. WHERE CPP IS CENTERED
 0.003                                 ! FFACTOR - BOTTOM FRICTION COEFFICIENT; IGNORED IF NWP = 1
 0.0                                   ! ESL - LATERAL EDDY VISCOSITY COEFFICIENT; IGNORED IF NWP =1
 0                                     ! CORI - CORIOLIS PARAMETER - IGNORED IF NCOR = 1
 0                                     ! NUMBER OF TIDAL POTENTIAL CONSTITUENTS BEING FORCED
 0                                     ! NBFR - TOTAL NUMBER OF FORCING FREQUENCIES ON OPEN BOUNDARIES
100.0                                  ! ANGINN : INNER ANGLE THRESHOLD
1                                      ! NFFR
 M2                                    ! BOUNTAG - ALPHA NUMERIC DESCRIPTOR
 1.2566   1.000  0.000      ! FREQUENCY, NODAL FACTOR, EQUILIBRIUM ARGUMENT (DEG) 0.000140518902509
   M2                 ! ALPHANUMERIC DESCRIPTION OF OPEN BOUNDARY FORCING DATA SET WHICH FOLLOWS 
      0.01          0
      0.01          0
      0.01          0
      0.01          0
      0.01          0
      0.01          0
1 0.0 28.0 864           ! NOUTE,TOUTSE,TOUTFE,NSPOOLE:ELEV STATION OUTPUT INFO (UNIT  61)
0                          ! TOTAL NUMBER OF ELEVATION RECORDING STATIONS
1 0.0 28.0 864           ! NOUTE,TOUTSE,TOUTFE,NSPOOLE:VEL STATION OUTPUT INFO (UNIT  62)
0                          ! TOTAL NUMBER OF VELOCITY RECORDING STATIONS
1  0.0  730.0  864       ! NOUTGE,TOUTSGE,TOUTFGE,NSPOOLGE : GLOBAL ELEV OUTPUT (UNIT  63)
1  0.0  730.0  864       ! NOUTGV,TOUTSGV,TOUTFGV,NSPOOLGV : GLOBAL VEL  OUTPUT (UNIT  64)
 0                                        ! NHARF - NUMBER OF FREQENCIES IN HARMONIC ANALYSIS
 0.000 0.000 0 0.000                      ! THAS,THAF,NHAINC,FMV - HARMONIC ANALYSIS PARAMETERS
 0 0 0 0                                  ! NHASE,NHASV,NHAGE,NHAGV - CONTROL HARMONIC ANALYSIS AND OUTPUT TO UNITS 51,52,53,54
 0 3600                                   ! NHSTAR,NHSINC - HOT START FILE GENERATION PARAMETERS
 1 0 1.000000000E-005 25                  ! ITITER, ISLDIA, CONVCR, ITMAX - ALGEBRAIC SOLUTION PARAMETERS
