CTXCS_TP_0012_HIS                         ! 32 CHARACTER ALPHANUMERIC RUN DESCRIPTION
Tides_1_SLC_0_RFC_0_WAV_1_GCP_CTX61LE02                          ! 24 CHARACTER ALPHANUMERIC RUN IDENTIFICATION
 1             ! NFOVER - NONFATAL ERROR OVERRIDE OPTION
 0             ! NABOUT - ABREVIATED OUTPUT OPTION PARAMETER
 2             ! NSCREEN - UNIT 6 OUTPUT OPTION PARAMETER
 0             !  IHOT - HOT START PARAMETER
 2             ! ICS - COORDINATE SYSTEM SELECTION PARAMETER
 0             ! IM - MODEL SELECTION PARAMETER 
 1             ! NOLIBF - BOTTOM FRICTION TERM SELECTION PARAMETER
 2             ! NOLIFA - FINITE AMPLITUDE TERM SELECTION PARAMETER
 0             ! NOLICA - SPATIAL DERIVATIVE CONVECTIVE SELECTION PARAMETER
 0             ! NOLICAT - TIME DERIVATIVE CONVECTIVE TERM SELECTION PARAMETER
 1             ! NWP - VARIABLE BOTTOM FRICTION AND LATERAL VISCOSITY OPTION PARAMETER
mannings_n_at_sea_floor
1            ! NCOR - VARIABLE CORIOLIS IN SPACE OPTION PARAMETER
0            ! NTIP - TIDAL POTENTIAL OPTION PARAMETER
0          !  NWS - WIND STRESS AND BAROMETRIC PRESSURE OPTION PARAMETER
1            ! NRAMP - RAMP FUNCTION OPTION
9.80665         ! G - ACCELERATION DUE TO GRAVITY - DETERMINES UNITS
-3.0          ! TAU0 - WEIGHTING FACTOR IN GWCE
0.25          ! DT - TIME STEP (IN SECONDS)
0.00         ! STATIM - STARTING TIME (IN DAYS)
0.00         ! REFTIM - REFERENCE TIME (IN DAYS)
12.0                 ! RNDAY - TOTAL LENGTH OF SIMULATION (IN DAYS)
0.05              ! DRAMP - DURATION OF RAMP FUNCTION (IN DAYS)
0.35 0.30 0.35    ! TIME WEIGHTING FACTORS FOR THE GWCE EQUATION
0.10 12 12 0.10   ! H0, NODEDRYMIN, NODEWETMIN, VELMIN
-93.37 29.00      ! SLAM0,SFEA0 - CENTER OF CPP PROJECTION (NOT USED IF ICS=1, NTIP=0, NCOR=0)
0.00026 2.0 10 1.33333 !  FFACTOR,HBREAK,FTHETA,FGAMMA
4.0   ! ESLM - SPATIALLY CONSTANT HORIZONTAL EDDY VISCOSITY FOR THE MOMENTUM EQUATIONS IGNORED IF NWP=1
0.0    ! CORI - CORIOLIS PARAMETER - IGNORED IF NCOR = 1
0     ! NTIF - TOTAL NUMBER OF TIDAL POTENTIAL CONSTITUENTS BEING FORCED
0           ! NBFR - TOTAL NUMBER OF FORCING FREQUENCIES ON OPEN BOUNDARIES
110.0 ! ANGINN : INNER ANGLE THRESHOLD
0                     ! NFFR - TOTAL NUMBER OF FORCING FREQUENCIES ON FLUX BOUNDARIES
1 0.00 42.0 14400        ! NOUTE,TOUTSE,TOUTFE,NSPOOLE:ELEV STATION OUTPUT INFO (UNIT  61)
-2                    ! TOTAL NUMBER OF ELEVATION RECORDING STATIONS
1 0.00 42.0 14400        ! NOUTV,TOUTSV,TOUTFV,NSPOOLV:VEL STATION OUTPUT INFO (UNIT 62)
-2                    ! TOTAL NUMBER OF VELOCITY RECORDING STATIONS
1 0.00 42.0 28800       ! NOUTGE,TOUTSGE,TOUTFGE,NSPOOLGE : GLOBAL ELEV OUTPUT (UNIT  63)
1 0.00 42.0 28800       ! NOUTGV,TOUTSGV,TOUTFGV,NSPOOLGV : GLOBAL VEL  OUTPUT (UNIT  64)
0                                        ! NHARF - NUMBER OF FREQENCIES IN HARMONIC ANALYSIS
0.000000 0.000000 0 0.000000             ! THAS,THAF,NHAINC,FMV - HARMONIC ANALYSIS PARAMETERS
0 0 1 1                                  ! NHASE,NHASV,NHAGE,NHAGV - CONTROL HARMONIC ANALYSIS AND OUTPUT TO UNITS 51,52,53,54
-1 172800                                 ! NHSTAR,NHSINC - HOT START FILE GENERATION PARAMETERS
1 0 1.0e-09 50                            ! ITITER, ISLDIA, CONVCR, ITMAX - ALGEBRAIC SOLUTION PARAMETERS
&metControl WindDragLimit=0.002 DragLawString='default' 
/
&wetDryControl
    StatPartWetFix = .true.
/

